electric-grid/physical/synthetic/illini200/illinois200.epc
title
!
comments
!
solution parameters
tap    1    tcul  enabled/disabled
phas   1    ps    enabled/disabled
area   1    area  enabled/disabled
svd    1    svd   enabled/disabled
dctap  1    dc    enabled/disabled
gcd    0    gcd   enabled/disabled
jump  0.000200    jumper threshold
toler   0.1000    newton tolerance
sbase 100.0000    system mva base
!
substation data  [  111]           no  name
      1  "CREVE COEUR"    : 40.642116 -89.599560
      2  "ILLIOPOLIS"    : 39.866030 -89.251291
      3  "PAXTON 2"    : 40.378337 -88.105151
      4  "PEORIA 9"    : 40.712882 -89.576722
      5  "PEORIA 8"    : 40.705729 -89.653624
      6  "LOVINGTON"    : 39.801351 -88.730259
      7  "DECATUR 3"    : 39.817070 -88.926317
      8  "MASON CITY"    : 40.172880 -89.558457
      9  "BETHANY"    : 39.529684 -88.800594
     10  "RANKIN"    : 40.438957 -87.890723
     11  "WINDSOR"    : 39.440561 -88.615209
     12  "PEKIN 2"    : 40.539343 -89.618320
     13  "HEYWORTH"    : 40.381256 -89.065969
     14  "DECATUR 2"    : 39.827583 -89.047800
     15  "LINCOLN"    : 40.214556 -89.299252
     16  "SHERMAN"    : 39.958048 -89.516172
     17  "URBANA 2"    : 40.108966 -88.211024
     18  "SPRINGFIELD "    : 39.910073 -89.687708
     19  "CARLOCK"    : 40.610446 -89.122717
     20  "PLEASANT PLA"    : 39.945973 -89.923096
     21  "LE ROY"    : 40.339682 -88.754301
     22  "DECATUR 1"    : 39.844096 -88.952216
     23  "RANTOUL 2"    : 40.312222 -88.159444
     24  "MACON"    : 39.763355 -88.989322
     25  "ELLSWORTH 2"    : 40.464516 -88.745295
     26  "MOUNT PULASK"    : 39.981254 -89.283539
     27  "WAPELLA"    : 40.232881 -89.091171
     28  "ROANOKE"    : 40.858083 -89.135201
     29  "GREEN VALLEY"    : 40.414441 -89.666079
     30  "BLOOMINGTON "    : 40.402310 -88.840561
     31  "SPRINGFIELD "    : 39.818055 -89.455965
     32  "BEMENT"    : 39.941961 -88.805357
     33  "PAXTON 1"    : 40.464050 -88.021517
     34  "MOUNT ZION"    : 39.770300 -88.869700
     35  "RANTOUL 1"    : 40.298873 -88.300263
     36  "BRIMFIELD"    : 40.794200 -89.843600
     37  "WELDON"    : 40.033078 -88.716508
     38  "GIBSON CITY "    : 40.467849 -88.351997
     39  "MINIER"    : 40.350757 -89.323483
     40  "HUDSON"    : 40.619486 -88.991155
     41  "ATHENS"    : 39.997432 -89.665941
     42  "PEORIA HEIGH"    : 40.746726 -89.571641
     43  "SPRINGFIELD "    : 39.773498 -89.683840
     44  "CLINTON 3"    : 40.120833 -88.961111
     45  "TUSCOLA 2"    : 39.798175 -88.349771
     46  "KENNEY"    : 40.092849 -89.116222
     47  "MANSFIELD"    : 40.137717 -88.629166
     48  "MANITO"    : 40.358139 -89.896566
     49  "DUNLAP"    : 40.848480 -89.669078
     50  "CHAMPAIGN 3"    : 40.109646 -88.274903
     51  "PEORIA 7"    : 40.697618 -89.612699
     52  "ELLSWORTH 1"    : 40.479200 -88.798900
     53  "TOWANDA"    : 40.566516 -88.874490
     54  "BLOOMINGTON "    : 40.471127 -88.944538
     55  "PRINCEVILLE"    : 40.938697 -89.939478
     56  "DELAVAN"    : 40.296711 -89.471453
     57  "PEORIA 6"    : 40.699807 -89.611514
     58  "SAVOY"    : 40.045756 -88.259444
     59  "NORMAL 2"    : 40.537000 -89.019000
     60  "EAST PEORIA"    : 40.713236 -89.535816
     61  "HANNA CITY"    : 40.689425 -89.793782
     62  "METAMORA"    : 40.870710 -89.353494
     63  "GREENVIEW"    : 40.092750 -89.724017
     64  "CLINTON 2"    : 40.200639 -88.814798
     65  "BARTONVILLE"    : 40.595800 -89.663100
     66  "NORMAL 1"    : 40.529083 -88.958937
     67  "LEXINGTON"    : 40.629725 -88.788001
     68  "PEORIA 5"    : 40.737893 -89.686781
     69  "MORTON"    : 40.618858 -89.336899
     70  "PEKIN 1"    : 40.540800 -89.678600
     71  "NIANTIC"    : 39.855374 -89.158927
     72  "COLFAX"    : 40.554670 -88.514468
     73  "EL PASO"    : 40.744984 -89.029986
     74  "TREMONT"    : 40.511627 -89.482220
     75  "PEORIA 4"    : 40.674568 -89.608587
     76  "PEORIA 3"    : 40.759136 -89.604123
     77  "CHAMPAIGN 2"    : 40.136481 -88.305307
     78  "EUREKA"    : 40.714370 -89.260105
     79  "CHATHAM"    : 39.668014 -89.826988
     80  "HOPEDALE 2"    : 40.369200 -89.402200
     81  "WASHINGTON"    : 40.704146 -89.417889
     82  "SPRINGFIELD "    : 39.757327 -89.600512
     83  "PEORIA 2"    : 40.627135 -89.685132
     84  "MT ZION"    : 39.719105 -88.840528
     85  "BUFFALO"    : 39.928796 -89.395320
     86  "SPRINGFIELD "    : 39.823300 -89.589100
     87  "CONGERVILLE"    : 40.628647 -89.221289
     88  "CHAMPAIGN 1"    : 40.105169 -88.241528
     89  "FISHER"    : 40.329508 -88.530877
     90  "HOMER"    : 39.916122 -87.914791
     91  "TUSCOLA 1"    : 39.905255 -88.278472
     92  "WHITE HEATH"    : 40.089160 -88.477814
     93  "TOLONO"    : 39.975064 -88.152723
     94  "SPRINGFIELD "    : 39.765466 -89.729326
     95  "MACKINAW"    : 40.430677 -89.203945
     96  "URBANA 1"    : 40.131498 -88.156770
     97  "SAINT JOSEPH"    : 40.133896 -88.039122
     98  "SPRINGFIELD "    : 39.806868 -89.641653
     99  "MONTICELLO"    : 39.960820 -88.434724
    100  "AUBURN"    : 39.560286 -89.675123
    101  "HOPEDALE 1"    : 40.416219 -89.435480
    102  "CLINTON 1"    : 40.171900 -88.833900
    103  "MAHOMET"    : 40.214956 -88.421171
    104  "VILLA GROVE"    : 39.714200 -87.897725
    105  "BLOOMINGTON "    : 40.476771 -88.992995
    106  "PEORIA 1"    : 40.676541 -89.633346
    107  "SPRINGFIELD "    : 39.762449 -89.629884
    108  "GIBSON CITY "    : 40.470500 -88.398700
    109  "MAPLETON"    : 40.556403 -89.762073
    110  "GIFFORD"    : 40.306027 -87.958606
    111  "PETERSBURG"    : 40.169931 -89.986537
bus data  [200]               ty  vsched   volt     angle    ar zone  vmax   vmin   date_in date_out pid L own st  latitude  longitude island    sdmon   vmax1      vmin1      dvmax subst
      1 "CREVE COEU~1" 115.0000 " "  0  :  1 0.998725  0.998725  -36.484845    1    1 1.1000 0.9000   400101   391231   0 0   1 0   0.000000   0.000000     0 0    0.00000    0.00000    0.00000 1 "CREVE COEUR"     1 -1 " " 
      2 "CREVE COEU~2" 115.0000 " "  0  :  1 0.998547  0.998547  -36.504646    1    1 1.1000 0.9000   400101   391231   0 0   1 0   0.000000   0.000000     0 0    0.00000    0.00000    0.00000 1 "CREVE COEUR"     2 -1 " " 
      3 "ILLIOPOLIS 0" 115.0000 " "  0  :  1 1.010332  1.010332  -38.186132    1    1 1.1000 0.9000   400101   391231   0 0   1 0   0.000000   0.000000     0 0    0.00000    0.00000    0.00000 2 "ILLIOPOLIS"     3 -1 " " 
      4 "ILLIOPOLIS 1" 115.0000 " "  0  :  1 1.010291  1.010291  -38.190918    1    1 1.1000 0.9000   400101   391231   0 0   1 0   0.000000   0.000000     0 0    0.00000    0.00000    0.00000 2 "ILLIOPOLIS"     4 -1 " " 
      5 "PAXTON 2 0  " 115.0000 " "  0  :  1 1.023175  1.023175  -38.814350    1    1 1.1000 0.9000   400101   391231   0 0   1 0   0.000000   0.000000     0 0    0.00000    0.00000    0.00000 3 "PAXTON 2"     5 -1 " " 
      6 "PAXTON 2 1  " 115.0000 " "  0  :  1 1.022974  1.022974  -38.835837    1    1 1.1000 0.9000   400101   391231   0 0   1 0   0.000000   0.000000     0 0    0.00000    0.00000    0.00000 3 "PAXTON 2"     6 -1 " " 
      7 "PEORIA 9 0  " 115.0000 " "  0  :  1 0.989516  0.989516  -37.640747    1    1 1.1000 0.9000   400101   391231   0 0   1 0   0.000000   0.000000     0 0    0.00000    0.00000    0.00000 4 "PEORIA 9"     7 -1 " " 
      8 "PEORIA 9 1  " 115.0000 " "  0  :  1 0.988967  0.988967  -37.702748    1    1 1.1000 0.9000   400101   391231   0 0   1 0   0.000000   0.000000     0 0    0.00000    0.00000    0.00000 4 "PEORIA 9"     8 -1 " " 
      9 "PEORIA 8 0  " 115.0000 " "  0  :  1 0.993930  0.993930  -37.023795    1    1 1.1000 0.9000   400101   391231   0 0   1 0   0.000000   0.000000     0 0    0.00000    0.00000    0.00000 5 "PEORIA 8"     9 -1 " " 
     10 "PEORIA 8 1  " 115.0000 " "  0  :  1 0.992834  0.992834  -37.163436    1    1 1.1000 0.9000   400101   391231   0 0   1 0   0.000000   0.000000     0 0    0.00000    0.00000    0.00000 5 "PEORIA 8"    10 -1 " " 
     11 "LOVINGTON 0 " 115.0000 " "  0  :  1 1.034907  1.034907  -35.627278    1    1 1.1000 0.9000   400101   391231   0 0   1 0   0.000000   0.000000     0 0    0.00000    0.00000    0.00000 6 "LOVINGTON"    11 -1 " " 
     12 "LOVINGTON 1 " 115.0000 " "  0  :  1 1.034900  1.034900  -35.628157    1    1 1.1000 0.9000   400101   391231   0 0   1 0   0.000000   0.000000     0 0    0.00000    0.00000    0.00000 6 "LOVINGTON"    12 -1 " " 
     13 "LOVINGTON 2 " 115.0000 " "  0  :  1 1.034843  1.034843  -35.634698    1    1 1.1000 0.9000   400101   391231   0 0   1 0   0.000000   0.000000     0 0    0.00000    0.00000    0.00000 6 "LOVINGTON"    13 -1 " " 
     14 "DECATUR 3 0 " 230.0000 " "  0  :  1 1.033119  1.033119  -34.381983    1    1 1.1000 0.9000   400101   391231   0 0   1 0   0.000000   0.000000     0 0    0.00000    0.00000    0.00000 7 "DECATUR 3"    14 -1 " " 
     15 "DECATUR 3 1 " 115.0000 " "  0  :  1 1.035589  1.035589  -35.497711    1    1 1.1000 0.9000   400101   391231   0 0   1 0   0.000000   0.000000     0 0    0.00000    0.00000    0.00000 7 "DECATUR 3"    15 -1 " " 
     16 "DECATUR 3 2 " 115.0000 " "  0  :  1 1.034572  1.034572  -35.614380    1    1 1.1000 0.9000   400101   391231   0 0   1 0   0.000000   0.000000     0 0    0.00000    0.00000    0.00000 7 "DECATUR 3"    16 -1 " " 
     17 "MASON CITY 0" 115.0000 " "  0  :  1 1.001134  1.001134  -39.161689    1    1 1.1000 0.9000   400101   391231   0 0   1 0   0.000000   0.000000     0 0    0.00000    0.00000    0.00000 8 "MASON CITY"    17 -1 " " 
     18 "MASON CITY 1" 115.0000 " "  0  :  1 1.001115  1.001115  -39.164163    1    1 1.1000 0.9000   400101   391231   0 0   1 0   0.000000   0.000000     0 0    0.00000    0.00000    0.00000 8 "MASON CITY"    18 -1 " " 
     19 "MASON CITY 2" 115.0000 " "  0  :  1 1.001117  1.001117  -39.163754    1    1 1.1000 0.9000   400101   391231   0 0   1 0   0.000000   0.000000     0 0    0.00000    0.00000    0.00000 8 "MASON CITY"    19 -1 " " 
     20 "MASON CITY 3" 115.0000 " "  0  :  1 1.001105  1.001105  -39.164968    1    1 1.1000 0.9000   400101   391231   0 0   1 0   0.000000   0.000000     0 0    0.00000    0.00000    0.00000 8 "MASON CITY"    20 -1 " " 
     21 "MASON CITY 4" 115.0000 " "  0  :  1 1.001005  1.001005  -39.177564    1    1 1.1000 0.9000   400101   391231   0 0   1 0   0.000000   0.000000     0 0    0.00000    0.00000    0.00000 8 "MASON CITY"    21 -1 " " 
     22 "BETHANY 0   " 115.0000 " "  0  :  1 1.034460  1.034460  -35.650737    1    1 1.1000 0.9000   400101   391231   0 0   1 0   0.000000   0.000000     0 0    0.00000    0.00000    0.00000 9 "BETHANY"    22 -1 " " 
     23 "BETHANY 1   " 115.0000 " "  0  :  1 1.034427  1.034427  -35.654423    1    1 1.1000 0.9000   400101   391231   0 0   1 0   0.000000   0.000000     0 0    0.00000    0.00000    0.00000 9 "BETHANY"    23 -1 " " 
     24 "BETHANY 2   " 115.0000 " "  0  :  1 1.034402  1.034402  -35.656640    1    1 1.1000 0.9000   400101   391231   0 0   1 0   0.000000   0.000000     0 0    0.00000    0.00000    0.00000 9 "BETHANY"    24 -1 " " 
     25 "RANKIN 0    " 115.0000 " "  0  :  1 1.025710  1.025710  -39.097350    1    1 1.1000 0.9000   400101   391231   0 0   1 0   0.000000   0.000000     0 0    0.00000    0.00000    0.00000 10 "RANKIN"    25 -1 " " 
     26 "RANKIN 1    " 115.0000 " "  0  :  1 1.025679  1.025679  -39.100707    1    1 1.1000 0.9000   400101   391231   0 0   1 0   0.000000   0.000000     0 0    0.00000    0.00000    0.00000 10 "RANKIN"    26 -1 " " 
     27 "WINDSOR 0   " 115.0000 " "  0  :  1 1.035054  1.035054  -35.782451    1    1 1.1000 0.9000   400101   391231   0 0   1 0   0.000000   0.000000     0 0    0.00000    0.00000    0.00000 11 "WINDSOR"    27 -1 " " 
     28 "WINDSOR 1   " 115.0000 " "  0  :  1 1.034992  1.034992  -35.790040    1    1 1.1000 0.9000   400101   391231   0 0   1 0   0.000000   0.000000     0 0    0.00000    0.00000    0.00000 11 "WINDSOR"    28 -1 " " 
     29 "PEKIN 2 0   " 115.0000 " "  0  :  1 0.998856  0.998856  -36.226215    1    1 1.1000 0.9000   400101   391231   0 0   1 0   0.000000   0.000000     0 0    0.00000    0.00000    0.00000 12 "PEKIN 2"    29 -1 " " 
     30 "PEKIN 2 1   " 115.0000 " "  0  :  1 0.997459  0.997459  -36.374027    1    1 1.1000 0.9000   400101   391231   0 0   1 0   0.000000   0.000000     0 0    0.00000    0.00000    0.00000 12 "PEKIN 2"    30 -1 " " 
     31 "HEYWORTH 0  " 115.0000 " "  0  :  1 0.999381  0.999381  -39.562360    1    1 1.1000 0.9000   400101   391231   0 0   1 0   0.000000   0.000000     0 0    0.00000    0.00000    0.00000 13 "HEYWORTH"    31 -1 " " 
     32 "HEYWORTH 1  " 115.0000 " "  0  :  1 0.999369  0.999369  -39.563847    1    1 1.1000 0.9000   400101   391231   0 0   1 0   0.000000   0.000000     0 0    0.00000    0.00000    0.00000 13 "HEYWORTH"    32 -1 " " 
     33 "HEYWORTH 2  " 115.0000 " "  0  :  1 0.999243  0.999243  -39.580004    1    1 1.1000 0.9000   400101   391231   0 0   1 0   0.000000   0.000000     0 0    0.00000    0.00000    0.00000 13 "HEYWORTH"    33 -1 " " 
     34 "DECATUR 2 0 " 115.0000 " "  0  :  1 1.017926  1.017926  -36.929680    1    1 1.1000 0.9000   400101   391231   0 0   1 0   0.000000   0.000000     0 0    0.00000    0.00000    0.00000 14 "DECATUR 2"    34 -1 " " 
     35 "DECATUR 2 1 " 115.0000 " "  0  :  1 1.017395  1.017395  -36.994263    1    1 1.1000 0.9000   400101   391231   0 0   1 0   0.000000   0.000000     0 0    0.00000    0.00000    0.00000 14 "DECATUR 2"    35 -1 " " 
     36 "LINCOLN 0   " 115.0000 " "  0  :  1 1.005931  1.005931  -39.693345    1    1 1.1000 0.9000   400101   391231   0 0   1 0   0.000000   0.000000     0 0    0.00000    0.00000    0.00000 15 "LINCOLN"    36 -1 " " 
     37 "LINCOLN 1   " 115.0000 " "  0  :  1 1.005859  1.005859  -39.702124    1    1 1.1000 0.9000   400101   391231   0 0   1 0   0.000000   0.000000     0 0    0.00000    0.00000    0.00000 15 "LINCOLN"    37 -1 " " 
     38 "LINCOLN 2   " 115.0000 " "  0  :  1 1.005252  1.005252  -39.770111    1    1 1.1000 0.9000   400101   391231   0 0   1 0   0.000000   0.000000     0 0    0.00000    0.00000    0.00000 15 "LINCOLN"    38 -1 " " 
     39 "SHERMAN 0   " 115.0000 " "  0  :  1 0.998868  0.998868  -39.913488    1    1 1.1000 0.9000   400101   391231   0 0   1 0   0.000000   0.000000     0 0    0.00000    0.00000    0.00000 16 "SHERMAN"    39 -1 " " 
     40 "SHERMAN 1   " 115.0000 " "  0  :  1 0.998823  0.998823  -39.919055    1    1 1.1000 0.9000   400101   391231   0 0   1 0   0.000000   0.000000     0 0    0.00000    0.00000    0.00000 16 "SHERMAN"    40 -1 " " 
     41 "URBANA 2 0  " 115.0000 " "  0  :  1 1.015038  1.015038  -41.826757    1    1 1.1000 0.9000   400101   391231   0 0   1 0   0.000000   0.000000     0 0    0.00000    0.00000    0.00000 17 "URBANA 2"    41 -1 " " 
     42 "SPRINGFIE~18" 115.0000 " "  0  :  1 1.007058  1.007058  -38.646358    1    1 1.1000 0.9000   400101   391231   0 0   1 0   0.000000   0.000000     0 0    0.00000    0.00000    0.00000 18 "SPRINGFIELD 8"    42 -1 " " 
     43 "CARLOCK 0   " 115.0000 " "  0  :  1 0.994379  0.994379  -38.626607    1    1 1.1000 0.9000   400101   391231   0 0   1 0   0.000000   0.000000     0 0    0.00000    0.00000    0.00000 19 "CARLOCK"    43 -1 " " 
     44 "PLEASANT P~1" 115.0000 " "  0  :  1 1.004904  1.004904  -38.490044    1    1 1.1000 0.9000   400101   391231   0 0   1 0   0.000000   0.000000     0 0    0.00000    0.00000    0.00000 20 "PLEASANT PLAINS"    44 -1 " " 
     45 "LE ROY 0    " 230.0000 " "  0  :  1 1.027756  1.027756  -33.752015    1    1 1.1000 0.9000   400101   391231   0 0   1 0   0.000000   0.000000     0 0    0.00000    0.00000    0.00000 21 "LE ROY"    45 -1 " " 
     46 "LE ROY 1    " 115.0000 " "  0  :  1 1.025209  1.025209  -34.633271    1    1 1.1000 0.9000   400101   391231   0 0   1 0   0.000000   0.000000     0 0    0.00000    0.00000    0.00000 21 "LE ROY"    46 -1 " " 
     47 "DECATUR 1 0 " 115.0000 " "  0  :  1 1.031642  1.031642  -35.017317    1    1 1.1000 0.9000   400101   391231   0 0   1 0   0.000000   0.000000     0 0    0.00000    0.00000    0.00000 22 "DECATUR 1"    47 -1 " " 
     48 "RANTOUL 2 0 " 115.0000 " "  0  :  1 1.020469  1.020469  -39.106063    1    1 1.1000 0.9000   400101   391231   0 0   1 0   0.000000   0.000000     0 0    0.00000    0.00000    0.00000 23 "RANTOUL 2"    48 -1 " " 
     49 "RANTOUL 2 1 "  13.8000 " "  0  :  2 1.040000 1.032281  -37.826268    1    1 1.1000 0.9000   400101   391231   0 0   1 0   0.000000   0.000000     0 0    0.00000    0.00000    0.00000 23 "RANTOUL 2"    49 -1 " " 
     50 "RANTOUL 2 2 "  13.8000 " "  0  :  2 1.040000 1.029561  -38.132551    1    1 1.1000 0.9000   400101   391231   0 0   1 0   0.000000   0.000000     0 0    0.00000    0.00000    0.00000 23 "RANTOUL 2"    50 -1 " " 
     51 "RANTOUL 2 3 "  13.8000 " "  0  :  2 1.040000 1.033825  -37.629606    1    1 1.1000 0.9000   400101   391231   0 0   1 0   0.000000   0.000000     0 0    0.00000    0.00000    0.00000 23 "RANTOUL 2"    51 -1 " " 
     52 "RANTOUL 2 4 "  13.8000 " "  0  :  2 1.040000 1.029083  -38.192290    1    1 1.1000 0.9000   400101   391231   0 0   1 0   0.000000   0.000000     0 0    0.00000    0.00000    0.00000 23 "RANTOUL 2"    52 -1 " " 
     53 "RANTOUL 2 5 "  13.8000 " "  0  :  2 1.040000 1.040000  -36.320835    1    1 1.1000 0.9000   400101   391231   0 0   1 0   0.000000   0.000000     0 0    0.00000    0.00000    0.00000 23 "RANTOUL 2"    53 -1 " " 
     54 "MACON 0     " 115.0000 " "  0  :  1 1.027909  1.027909  -35.518225    1    1 1.1000 0.9000   400101   391231   0 0   1 0   0.000000   0.000000     0 0    0.00000    0.00000    0.00000 24 "MACON"    54 -1 " " 
     55 "ELLSWORTH ~5" 230.0000 " "  0  :  1 1.024717  1.024717  -34.507306    1    1 1.1000 0.9000   400101   391231   0 0   1 0   0.000000   0.000000     0 0    0.00000    0.00000    0.00000 25 "ELLSWORTH 2"    55 -1 " " 
     56 "ELLSWORTH ~6" 115.0000 " "  0  :  1 1.023181  1.023181  -34.882556    1    1 1.1000 0.9000   400101   391231   0 0   1 0   0.000000   0.000000     0 0    0.00000    0.00000    0.00000 25 "ELLSWORTH 2"    56 -1 " " 
     57 "MOUNT PULA~1" 115.0000 " "  0  :  1 1.005556  1.005556  -38.958227    1    1 1.1000 0.9000   400101   391231   0 0   1 0   0.000000   0.000000     0 0    0.00000    0.00000    0.00000 26 "MOUNT PULASKI"    57 -1 " " 
     58 "WAPELLA 0   " 115.0000 " "  0  :  1 1.013044  1.013044  -39.471071    1    1 1.1000 0.9000   400101   391231   0 0   1 0   0.000000   0.000000     0 0    0.00000    0.00000    0.00000 27 "WAPELLA"    58 -1 " " 
     59 "ROANOKE 0   " 115.0000 " "  0  :  1 0.991695  0.991695  -39.285283    1    1 1.1000 0.9000   400101   391231   0 0   1 0   0.000000   0.000000     0 0    0.00000    0.00000    0.00000 28 "ROANOKE"    59 -1 " " 
     60 "GREEN VALL~1" 115.0000 " "  0  :  1 1.013510  1.013510  -35.185033    1    1 1.1000 0.9000   400101   391231   0 0   1 0   0.000000   0.000000     0 0    0.00000    0.00000    0.00000 29 "GREEN VALLEY"    60 -1 " " 
     61 "BLOOMINGTO~3" 115.0000 " "  0  :  1 1.021354  1.021354  -35.141536    1    1 1.1000 0.9000   400101   391231   0 0   1 0   0.000000   0.000000     0 0    0.00000    0.00000    0.00000 30 "BLOOMINGTON 3"    61 -1 " " 
     62 "SPRINGFIE~17" 115.0000 " "  0  :  1 1.001327  1.001327  -39.623617    1    1 1.1000 0.9000   400101   391231   0 0   1 0   0.000000   0.000000     0 0    0.00000    0.00000    0.00000 31 "SPRINGFIELD 7"    62 -1 " " 
     63 "BEMENT 0    " 115.0000 " "  0  :  1 1.027569  1.027569  -37.020582    1    1 1.1000 0.9000   400101   391231   0 0   1 0   0.000000   0.000000     0 0    0.00000    0.00000    0.00000 32 "BEMENT"    63 -1 " " 
     64 "PAXTON 1 0  " 115.0000 " "  0  :  1 1.029111  1.029111  -38.087884    1    1 1.1000 0.9000   400101   391231   0 0   1 0   0.000000   0.000000     0 0    0.00000    0.00000    0.00000 33 "PAXTON 1"    64 -1 " " 
     65 "PAXTON 1 1  "  13.8000 " "  0  :  2 1.040000 1.040000  -34.796049    1    1 1.1000 0.9000   400101   391231   0 0   1 0   0.000000   0.000000     0 0    0.00000    0.00000    0.00000 33 "PAXTON 1"    65 -1 " " 
     66 "MOUNT ZION 0" 115.0000 " "  0  :  1 1.035784  1.035784  -34.438374    1    1 1.1000 0.9000   400101   391231   0 0   1 0   0.000000   0.000000     0 0    0.00000    0.00000    0.00000 34 "MOUNT ZION"    66 -1 " " 
     67 "MOUNT ZION 1"  13.8000 " "  0  :  2 1.040000 1.039763  -34.100753    1    1 1.1000 0.9000   400101   391231   0 0   1 0   0.000000   0.000000     0 0    0.00000    0.00000    0.00000 34 "MOUNT ZION"    67 -1 " " 
     68 "MOUNT ZION 2"  13.8000 " "  0  :  2 1.040000 1.040000  -30.506916    1    1 1.1000 0.9000   400101   391231   0 0   1 0   0.000000   0.000000     0 0    0.00000    0.00000    0.00000 34 "MOUNT ZION"    68 -1 " " 
     69 "MOUNT ZION 3"  13.8000 " "  0  :  2 1.040000 1.040000  -33.036192    1    1 1.1000 0.9000   400101   391231   0 0   1 0   0.000000   0.000000     0 0    0.00000    0.00000    0.00000 34 "MOUNT ZION"    69 -1 " " 
     70 "MOUNT ZION 4"  13.8000 " "  0  :  2 1.040000 1.040000  -31.482346    1    1 1.1000 0.9000   400101   391231   0 0   1 0   0.000000   0.000000     0 0    0.00000    0.00000    0.00000 34 "MOUNT ZION"    70 -1 " " 
     71 "MOUNT ZION 5"  13.8000 " "  0  :  2 1.040000 1.040000  -33.235699    1    1 1.1000 0.9000   400101   391231   0 0   1 0   0.000000   0.000000     0 0    0.00000    0.00000    0.00000 34 "MOUNT ZION"    71 -1 " " 
     72 "MOUNT ZION 6"  13.8000 " "  0  :  2 1.040000 1.040000  -33.339534    1    1 1.1000 0.9000   400101   391231   0 0   1 0   0.000000   0.000000     0 0    0.00000    0.00000    0.00000 34 "MOUNT ZION"    72 -1 " " 
     73 "MOUNT ZION 7"  13.8000 " "  0  :  2 1.040000 1.040000  -32.271523    1    1 1.1000 0.9000   400101   391231   0 0   1 0   0.000000   0.000000     0 0    0.00000    0.00000    0.00000 34 "MOUNT ZION"    73 -1 " " 
     74 "RANTOUL 1 0 " 115.0000 " "  0  :  1 1.009541  1.009541  -40.161028    1    1 1.1000 0.9000   400101   391231   0 0   1 0   0.000000   0.000000     0 0    0.00000    0.00000    0.00000 35 "RANTOUL 1"    74 -1 " " 
     75 "BRIMFIELD 0 " 115.0000 " "  0  :  1 1.014511  1.014511  -34.715113    1    1 1.1000 0.9000   400101   391231   0 0   1 0   0.000000   0.000000     0 0    0.00000    0.00000    0.00000 36 "BRIMFIELD"    75 -1 " " 
     76 "BRIMFIELD 1 "  13.8000 " "  0  :  2 1.040000 1.030452  -34.242271    1    1 1.1000 0.9000   400101   391231   0 0   1 0   0.000000   0.000000     0 0    0.00000    0.00000    0.00000 36 "BRIMFIELD"    76 -1 " " 
     77 "BRIMFIELD 2 "  13.8000 " "  0  :  2 1.040000 1.040000  -33.909675    1    1 1.1000 0.9000   400101   391231   0 0   1 0   0.000000   0.000000     0 0    0.00000    0.00000    0.00000 36 "BRIMFIELD"    77 -1 " " 
     78 "BRIMFIELD 3 "  13.8000 " "  0  :  2 1.040000 1.014511  -34.715113    1    1 1.1000 0.9000   400101   391231   0 0   1 0   0.000000   0.000000     0 0    0.00000    0.00000    0.00000 36 "BRIMFIELD"    78 -1 " " 
     79 "BRIMFIELD 4 "  13.8000 " "  0  :  2 1.040000 1.014511  -34.715113    1    1 1.1000 0.9000   400101   391231   0 0   1 0   0.000000   0.000000     0 0    0.00000    0.00000    0.00000 36 "BRIMFIELD"    79 -1 " " 
     80 "WELDON 0    " 115.0000 " "  0  :  1 1.017623  1.017623  -40.507786    1    1 1.1000 0.9000   400101   391231   0 0   1 0   0.000000   0.000000     0 0    0.00000    0.00000    0.00000 37 "WELDON"    80 -1 " " 
     81 "GIBSON CIT~4" 230.0000 " "  0  :  1 1.019808  1.019808  -36.318888    1    1 1.1000 0.9000   400101   391231   0 0   1 0   0.000000   0.000000     0 0    0.00000    0.00000    0.00000 38 "GIBSON CITY 2"    81 -1 " " 
     82 "GIBSON CIT~5" 115.0000 " "  0  :  1 1.014896  1.014896  -37.611244    1    1 1.1000 0.9000   400101   391231   0 0   1 0   0.000000   0.000000     0 0    0.00000    0.00000    0.00000 38 "GIBSON CITY 2"    82 -1 " " 
     83 "MINIER 0    " 115.0000 " "  0  :  1 1.012163  1.012163  -38.235649    1    1 1.1000 0.9000   400101   391231   0 0   1 0   0.000000   0.000000     0 0    0.00000    0.00000    0.00000 39 "MINIER"    83 -1 " " 
     84 "HUDSON 0    " 115.0000 " "  0  :  1 0.997435  0.997435  -38.576435    1    1 1.1000 0.9000   400101   391231   0 0   1 0   0.000000   0.000000     0 0    0.00000    0.00000    0.00000 40 "HUDSON"    84 -1 " " 
     85 "ATHENS 0    " 115.0000 " "  0  :  1 0.998593  0.998593  -39.876466    1    1 1.1000 0.9000   400101   391231   0 0   1 0   0.000000   0.000000     0 0    0.00000    0.00000    0.00000 41 "ATHENS"    85 -1 " " 
     86 "PEORIA HEI~1" 115.0000 " "  0  :  1 0.991483  0.991483  -37.337220    1    1 1.1000 0.9000   400101   391231   0 0   1 0   0.000000   0.000000     0 0    0.00000    0.00000    0.00000 42 "PEORIA HEIGHTS"    86 -1 " " 
     87 "SPRINGFIE~15" 230.0000 " "  0  :  1 1.023931  1.023931  -34.425784    1    1 1.1000 0.9000   400101   391231   0 0   1 0   0.000000   0.000000     0 0    0.00000    0.00000    0.00000 43 "SPRINGFIELD 6"    87 -1 " " 
     88 "SPRINGFIE~16" 115.0000 " "  0  :  1 1.017916  1.017916  -36.548316    1    1 1.1000 0.9000   400101   391231   0 0   1 0   0.000000   0.000000     0 0    0.00000    0.00000    0.00000 43 "SPRINGFIELD 6"    88 -1 " " 
     89 "CLINTON 3 0 " 115.0000 " "  0  :  1 1.015337  1.015337  -38.730979    1    1 1.1000 0.9000   400101   391231   0 0   1 0   0.000000   0.000000     0 0    0.00000    0.00000    0.00000 44 "CLINTON 3"    89 -1 " " 
     90 "CLINTON 3 1 "  13.8000 " "  0  :  2 1.040000 1.040053  -37.579430    1    1 1.1000 0.9000   400101   391231   0 0   1 0   0.000000   0.000000     0 0    0.00000    0.00000    0.00000 44 "CLINTON 3"    90 -1 " " 
     91 "CLINTON 3 2 "  13.8000 " "  0  :  2 1.040000 1.028160  -38.350971    1    1 1.1000 0.9000   400101   391231   0 0   1 0   0.000000   0.000000     0 0    0.00000    0.00000    0.00000 44 "CLINTON 3"    91 -1 " " 
     92 "CLINTON 3 3 "  13.8000 " "  0  :  2 1.040000 1.015337  -38.730979    1    1 1.1000 0.9000   400101   391231   0 0   1 0   0.000000   0.000000     0 0    0.00000    0.00000    0.00000 44 "CLINTON 3"    92 -1 " " 
     93 "TUSCOLA 2 0 " 115.0000 " "  0  :  1 1.033873  1.033873  -36.464760    1    1 1.1000 0.9000   400101   391231   0 0   1 0   0.000000   0.000000     0 0    0.00000    0.00000    0.00000 45 "TUSCOLA 2"    93 -1 " " 
     94 "TUSCOLA 2 1 "  13.8000 " "  0  :  2 1.040000 1.040000  -33.783748    1    1 1.1000 0.9000   400101   391231   0 0   1 0   0.000000   0.000000     0 0    0.00000    0.00000    0.00000 45 "TUSCOLA 2"    94 -1 " " 
     95 "KENNEY 0    " 115.0000 " "  0  :  1 1.023229  1.023229  -39.226670    1    1 1.1000 0.9000   400101   391231   0 0   1 0   0.000000   0.000000     0 0    0.00000    0.00000    0.00000 46 "KENNEY"    95 -1 " " 
     96 "MANSFIELD 0 " 115.0000 " "  0  :  1 1.021395  1.021395  -36.538532    1    1 1.1000 0.9000   400101   391231   0 0   1 0   0.000000   0.000000     0 0    0.00000    0.00000    0.00000 47 "MANSFIELD"    96 -1 " " 
     97 "MANITO 0    " 115.0000 " "  0  :  1 1.007189  1.007189  -36.745569    1    1 1.1000 0.9000   400101   391231   0 0   1 0   0.000000   0.000000     0 0    0.00000    0.00000    0.00000 48 "MANITO"    97 -1 " " 
     98 "DUNLAP 0    " 230.0000 " "  0  :  1 1.011373  1.011373  -33.812716    1    1 1.1000 0.9000   400101   391231   0 0   1 0   0.000000   0.000000     0 0    0.00000    0.00000    0.00000 49 "DUNLAP"    98 -1 " " 
     99 "DUNLAP 1    " 115.0000 " "  0  :  1 1.004258  1.004258  -35.251722    1    1 1.1000 0.9000   400101   391231   0 0   1 0   0.000000   0.000000     0 0    0.00000    0.00000    0.00000 49 "DUNLAP"    99 -1 " " 
    100 "CHAMPAIGN~10" 115.0000 " "  0  :  1 1.024797  1.024797  -41.244916    1    1 1.1000 0.9000   400101   391231   0 0   1 0   0.000000   0.000000     0 0    0.00000    0.00000    0.00000 50 "CHAMPAIGN 3"   100 -1 " " 
    101 "PEORIA 7 0  " 115.0000 " "  0  :  1 0.992998  0.992998  -37.226845    1    1 1.1000 0.9000   400101   391231   0 0   1 0   0.000000   0.000000     0 0    0.00000    0.00000    0.00000 51 "PEORIA 7"   101 -1 " " 
    102 "ELLSWORTH ~1" 230.0000 " "  0  :  1 1.026428  1.026428  -34.196747    1    1 1.1000 0.9000   400101   391231   0 0   1 0   0.000000   0.000000     0 0    0.00000    0.00000    0.00000 52 "ELLSWORTH 1"   102 -1 " " 
    103 "ELLSWORTH ~2" 115.0000 " "  0  :  1 1.022803  1.022803  -34.942196    1    1 1.1000 0.9000   400101   391231   0 0   1 0   0.000000   0.000000     0 0    0.00000    0.00000    0.00000 52 "ELLSWORTH 1"   103 -1 " " 
    104 "ELLSWORTH ~3"  13.8000 " "  0  :  2 1.040000 1.040000  -31.764889    1    1 1.1000 0.9000   400101   391231   0 0   1 0   0.000000   0.000000     0 0    0.00000    0.00000    0.00000 52 "ELLSWORTH 1"   104 -1 " " 
    105 "ELLSWORTH ~4"  13.8000 " "  0  :  2 1.040000 1.040000  -32.199518    1    1 1.1000 0.9000   400101   391231   0 0   1 0   0.000000   0.000000     0 0    0.00000    0.00000    0.00000 52 "ELLSWORTH 1"   105 -1 " " 
    106 "TOWANDA 0   " 115.0000 " "  0  :  1 1.018321  1.018321  -35.532764    1    1 1.1000 0.9000   400101   391231   0 0   1 0   0.000000   0.000000     0 0    0.00000    0.00000    0.00000 53 "TOWANDA"   106 -1 " " 
    107 "BLOOMINGTO~2" 115.0000 " "  0  :  1 0.993776  0.993776  -39.401922    1    1 1.1000 0.9000   400101   391231   0 0   1 0   0.000000   0.000000     0 0    0.00000    0.00000    0.00000 54 "BLOOMINGTON 2"   107 -1 " " 
    108 "PRINCEVILL~1" 115.0000 " "  0  :  1 1.009449  1.009449  -35.497994    1    1 1.1000 0.9000   400101   391231   0 0   1 0   0.000000   0.000000     0 0    0.00000    0.00000    0.00000 55 "PRINCEVILLE"   108 -1 " " 
    109 "DELAVAN 0   " 115.0000 " "  0  :  1 1.005332  1.005332  -38.276135    1    1 1.1000 0.9000   400101   391231   0 0   1 0   0.000000   0.000000     0 0    0.00000    0.00000    0.00000 56 "DELAVAN"   109 -1 " " 
    110 "PEORIA 6 0  " 115.0000 " "  0  :  1 0.993136  0.993136  -37.186933    1    1 1.1000 0.9000   400101   391231   0 0   1 0   0.000000   0.000000     0 0    0.00000    0.00000    0.00000 57 "PEORIA 6"   110 -1 " " 
    111 "SAVOY 0     " 115.0000 " "  0  :  1 1.010288  1.010288  -42.063077    1    1 1.1000 0.9000   400101   391231   0 0   1 0   0.000000   0.000000     0 0    0.00000    0.00000    0.00000 58 "SAVOY"   111 -1 " " 
    112 "NORMAL 2 0  " 230.0000 " "  0  :  1 1.020933  1.020933  -34.879400    1    1 1.1000 0.9000   400101   391231   0 0   1 0   0.000000   0.000000     0 0    0.00000    0.00000    0.00000 59 "NORMAL 2"   112 -1 " " 
    113 "NORMAL 2 1  " 115.0000 " "  0  :  1 1.000869  1.000869  -38.390099    1    1 1.1000 0.9000   400101   391231   0 0   1 0   0.000000   0.000000     0 0    0.00000    0.00000    0.00000 59 "NORMAL 2"   113 -1 " " 
    114 "NORMAL 2 2  "  13.8000 " "  0  :  2 1.040000 1.023084  -34.634125    1    1 1.1000 0.9000   400101   391231   0 0   1 0   0.000000   0.000000     0 0    0.00000    0.00000    0.00000 59 "NORMAL 2"   114 -1 " " 
    115 "NORMAL 2 3  "  13.8000 " "  0  :  2 1.040000 1.040000  -32.355944    1    1 1.1000 0.9000   400101   391231   0 0   1 0   0.000000   0.000000     0 0    0.00000    0.00000    0.00000 59 "NORMAL 2"   115 -1 " " 
    116 "EAST PEORI~1" 230.0000 " "  0  :  1 1.010428  1.010428  -34.168369    1    1 1.1000 0.9000   400101   391231   0 0   1 0   0.000000   0.000000     0 0    0.00000    0.00000    0.00000 60 "EAST PEORIA"   116 -1 " " 
    117 "EAST PEORI~2" 115.0000 " "  0  :  1 0.999201  0.999201  -36.643951    1    1 1.1000 0.9000   400101   391231   0 0   1 0   0.000000   0.000000     0 0    0.00000    0.00000    0.00000 60 "EAST PEORIA"   117 -1 " " 
    118 "HANNA CITY 0" 115.0000 " "  0  :  1 1.003371  1.003371  -35.972147    1    1 1.1000 0.9000   400101   391231   0 0   1 0   0.000000   0.000000     0 0    0.00000    0.00000    0.00000 61 "HANNA CITY"   118 -1 " " 
    119 "METAMORA 0  " 115.0000 " "  0  :  1 0.989596  0.989596  -38.886846    1    1 1.1000 0.9000   400101   391231   0 0   1 0   0.000000   0.000000     0 0    0.00000    0.00000    0.00000 62 "METAMORA"   119 -1 " " 
    120 "GREENVIEW 0 " 115.0000 " "  0  :  1 0.999605  0.999605  -39.627558    1    1 1.1000 0.9000   400101   391231   0 0   1 0   0.000000   0.000000     0 0    0.00000    0.00000    0.00000 63 "GREENVIEW"   120 -1 " " 
    121 "CLINTON 2 0 " 230.0000 " "  0  :  1 1.032482  1.032482  -32.772229    1    1 1.1000 0.9000   400101   391231   0 0   1 0   0.000000   0.000000     0 0    0.00000    0.00000    0.00000 64 "CLINTON 2"   121 -1 " " 
    122 "CLINTON 2 1 " 115.0000 " "  0  :  1 1.026268  1.026268  -34.804698    1    1 1.1000 0.9000   400101   391231   0 0   1 0   0.000000   0.000000     0 0    0.00000    0.00000    0.00000 64 "CLINTON 2"   122 -1 " " 
    123 "BARTONVILL~1" 230.0000 " "  0  :  1 1.022185  1.022185  -32.299716    1    1 1.1000 0.9000   400101   391231   0 0   1 0   0.000000   0.000000     0 0    0.00000    0.00000    0.00000 65 "BARTONVILLE"   123 -1 " " 
    124 "BARTONVILL~2" 115.0000 " "  0  :  1 1.008293  1.008293  -34.986017    1    1 1.1000 0.9000   400101   391231   0 0   1 0   0.000000   0.000000     0 0    0.00000    0.00000    0.00000 65 "BARTONVILLE"   124 -1 " " 
    125 "BARTONVILL~3"  13.8000 " "  0  :  2 1.040000 1.040000  -25.000250    1    1 1.1000 0.9000   400101   391231   0 0   1 0   0.000000   0.000000     0 0    0.00000    0.00000    0.00000 65 "BARTONVILLE"   125 -1 " " 
    126 "BARTONVILL~4"  13.8000 " "  0  :  2 1.040000 1.040000  -27.689867    1    1 1.1000 0.9000   400101   391231   0 0   1 0   0.000000   0.000000     0 0    0.00000    0.00000    0.00000 65 "BARTONVILLE"   126 -1 " " 
    127 "BARTONVILL~5"  13.8000 " "  0  :  2 1.040000 1.040000  -30.108481    1    1 1.1000 0.9000   400101   391231   0 0   1 0   0.000000   0.000000     0 0    0.00000    0.00000    0.00000 65 "BARTONVILLE"   127 -1 " " 
    128 "NORMAL 1 0  " 230.0000 " "  0  :  1 1.020393  1.020393  -34.835260    1    1 1.1000 0.9000   400101   391231   0 0   1 0   0.000000   0.000000     0 0    0.00000    0.00000    0.00000 66 "NORMAL 1"   128 -1 " " 
    129 "NORMAL 1 1  " 115.0000 " "  0  :  1 0.999428  0.999428  -38.546988    1    1 1.1000 0.9000   400101   391231   0 0   1 0   0.000000   0.000000     0 0    0.00000    0.00000    0.00000 66 "NORMAL 1"   129 -1 " " 
    130 "LEXINGTON 0 " 115.0000 " "  0  :  1 1.014565  1.014565  -35.984118    1    1 1.1000 0.9000   400101   391231   0 0   1 0   0.000000   0.000000     0 0    0.00000    0.00000    0.00000 67 "LEXINGTON"   130 -1 " " 
    131 "PEORIA 5 0  " 115.0000 " "  0  :  1 0.994068  0.994068  -37.058270    1    1 1.1000 0.9000   400101   391231   0 0   1 0   0.000000   0.000000     0 0    0.00000    0.00000    0.00000 68 "PEORIA 5"   131 -1 " " 
    132 "MORTON 0    " 115.0000 " "  0  :  1 0.990085  0.990085  -38.563865    1    1 1.1000 0.9000   400101   391231   0 0   1 0   0.000000   0.000000     0 0    0.00000    0.00000    0.00000 69 "MORTON"   132 -1 " " 
    133 "PEKIN 1 0   " 230.0000 " "  0  :  1 1.024244  1.024244  -32.306364    1    1 1.1000 0.9000   400101   391231   0 0   1 0   0.000000   0.000000     0 0    0.00000    0.00000    0.00000 70 "PEKIN 1"   133 -1 " " 
    134 "PEKIN 1 1   " 115.0000 " "  0  :  1 1.019557  1.019557  -33.769344    1    1 1.1000 0.9000   400101   391231   0 0   1 0   0.000000   0.000000     0 0    0.00000    0.00000    0.00000 70 "PEKIN 1"   134 -1 " " 
    135 "PEKIN 1 2   "  13.8000 " "  0  :  2 1.040000 1.040000  -28.408423    1    1 1.1000 0.9000   400101   391231   0 0   1 0   0.000000   0.000000     0 0    0.00000    0.00000    0.00000 70 "PEKIN 1"   135 -1 " " 
    136 "PEKIN 1 3   "  13.8000 " "  0  :  2 1.040000 1.040000  -29.416358    1    1 1.1000 0.9000   400101   391231   0 0   1 0   0.000000   0.000000     0 0    0.00000    0.00000    0.00000 70 "PEKIN 1"   136 -1 " " 
    137 "NIANTIC 0   " 115.0000 " "  0  :  1 1.013763  1.013763  -37.627525    1    1 1.1000 0.9000   400101   391231   0 0   1 0   0.000000   0.000000     0 0    0.00000    0.00000    0.00000 71 "NIANTIC"   137 -1 " " 
    138 "COLFAX 0    " 115.0000 " "  0  :  1 1.007813  1.007813  -38.579746    1    1 1.1000 0.9000   400101   391231   0 0   1 0   0.000000   0.000000     0 0    0.00000    0.00000    0.00000 72 "COLFAX"   138 -1 " " 
    139 "EL PASO 0   " 115.0000 " "  0  :  1 0.994673  0.994673  -39.376811    1    1 1.1000 0.9000   400101   391231   0 0   1 0   0.000000   0.000000     0 0    0.00000    0.00000    0.00000 73 "EL PASO"   139 -1 " " 
    140 "TREMONT 0   " 115.0000 " "  0  :  1 1.006316  1.006316  -35.351430    1    1 1.1000 0.9000   400101   391231   0 0   1 0   0.000000   0.000000     0 0    0.00000    0.00000    0.00000 74 "TREMONT"   140 -1 " " 
    141 "PEORIA 4 0  " 115.0000 " "  0  :  1 0.993071  0.993071  -37.183069    1    1 1.1000 0.9000   400101   391231   0 0   1 0   0.000000   0.000000     0 0    0.00000    0.00000    0.00000 75 "PEORIA 4"   141 -1 " " 
    142 "PEORIA 3 0  " 115.0000 " "  0  :  1 0.991448  0.991448  -37.194045    1    1 1.1000 0.9000   400101   391231   0 0   1 0   0.000000   0.000000     0 0    0.00000    0.00000    0.00000 76 "PEORIA 3"   142 -1 " " 
    143 "CHAMPAIGN ~9" 115.0000 " "  0  :  1 1.008897  1.008897  -39.577922    1    1 1.1000 0.9000   400101   391231   0 0   1 0   0.000000   0.000000     0 0    0.00000    0.00000    0.00000 77 "CHAMPAIGN 2"   143 -1 " " 
    144 "EUREKA 0    " 115.0000 " "  0  :  1 1.003772  1.003772  -36.964329    1    1 1.1000 0.9000   400101   391231   0 0   1 0   0.000000   0.000000     0 0    0.00000    0.00000    0.00000 78 "EUREKA"   144 -1 " " 
    145 "CHATHAM 0   " 115.0000 " "  0  :  1 1.009372  1.009372  -37.694371    1    1 1.1000 0.9000   400101   391231   0 0   1 0   0.000000   0.000000     0 0    0.00000    0.00000    0.00000 79 "CHATHAM"   145 -1 " " 
    146 "HOPEDALE 2 0" 115.0000 " "  0  :  1 1.016964  1.016964  -38.021100    1    1 1.1000 0.9000   400101   391231   0 0   1 0   0.000000   0.000000     0 0    0.00000    0.00000    0.00000 80 "HOPEDALE 2"   146 -1 " " 
    147 "HOPEDALE 2 1"  13.8000 " "  0  :  2 1.040000 1.038158  -35.728968    1    1 1.1000 0.9000   400101   391231   0 0   1 0   0.000000   0.000000     0 0    0.00000    0.00000    0.00000 80 "HOPEDALE 2"   147 -1 " " 
    148 "WASHINGTON 0" 115.0000 " "  0  :  1 0.984975  0.984975  -38.239004    1    1 1.1000 0.9000   400101   391231   0 0   1 0   0.000000   0.000000     0 0    0.00000    0.00000    0.00000 81 "WASHINGTON"   148 -1 " " 
    149 "SPRINGFIEL~8" 230.0000 " "  0  :  1 1.027639  1.027639  -33.725517    1    1 1.1000 0.9000   400101   391231   0 0   1 0   0.000000   0.000000     0 0    0.00000    0.00000    0.00000 82 "SPRINGFIELD 5"   149 -1 " " 
    150 "SPRINGFIEL~9" 115.0000 " "  0  :  1 1.023366  1.023366  -35.739007    1    1 1.1000 0.9000   400101   391231   0 0   1 0   0.000000   0.000000     0 0    0.00000    0.00000    0.00000 82 "SPRINGFIELD 5"   150 -1 " " 
    151 "SPRINGFIE~10"  13.8000 " "  0  :  2 1.040000 1.040000  -31.937978    1    1 1.1000 0.9000   400101   391231   0 0   1 0   0.000000   0.000000     0 0    0.00000    0.00000    0.00000 82 "SPRINGFIELD 5"   151 -1 " " 
    152 "SPRINGFIE~11"  13.8000 " "  0  :  2 1.040000 1.040000  -27.865328    1    1 1.1000 0.9000   400101   391231   0 0   1 0   0.000000   0.000000     0 0    0.00000    0.00000    0.00000 82 "SPRINGFIELD 5"   152 -1 " " 
    153 "SPRINGFIE~12"  13.8000 " "  0  :  2 1.040000 1.040000  -26.089597    1    1 1.1000 0.9000   400101   391231   0 0   1 0   0.000000   0.000000     0 0    0.00000    0.00000    0.00000 82 "SPRINGFIELD 5"   153 -1 " " 
    154 "SPRINGFIE~13"  13.8000 " "  0  :  2 1.040000 1.040000  -29.478111    1    1 1.1000 0.9000   400101   391231   0 0   1 0   0.000000   0.000000     0 0    0.00000    0.00000    0.00000 82 "SPRINGFIELD 5"   154 -1 " " 
    155 "SPRINGFIE~14"  13.8000 " "  0  :  2 1.040000 1.040000  -29.607317    1    1 1.1000 0.9000   400101   391231   0 0   1 0   0.000000   0.000000     0 0    0.00000    0.00000    0.00000 82 "SPRINGFIELD 5"   155 -1 " " 
    156 "PEORIA 2 0  " 230.0000 " "  0  :  1 1.022327  1.022327  -32.427279    1    1 1.1000 0.9000   400101   391231   0 0   1 0   0.000000   0.000000     0 0    0.00000    0.00000    0.00000 83 "PEORIA 2"   156 -1 " " 
    157 "PEORIA 2 1  " 115.0000 " "  0  :  1 1.018768  1.018768  -33.574016    1    1 1.1000 0.9000   400101   391231   0 0   1 0   0.000000   0.000000     0 0    0.00000    0.00000    0.00000 83 "PEORIA 2"   157 -1 " " 
    158 "MT ZION 0   " 115.0000 " "  0  :  1 1.034686  1.034686  -35.213704    1    1 1.1000 0.9000   400101   391231   0 0   1 0   0.000000   0.000000     0 0    0.00000    0.00000    0.00000 84 "MT ZION"   158 -1 " " 
    159 "BUFFALO 0   " 115.0000 " "  0  :  1 1.001977  1.001977  -39.516135    1    1 1.1000 0.9000   400101   391231   0 0   1 0   0.000000   0.000000     0 0    0.00000    0.00000    0.00000 85 "BUFFALO"   159 -1 " " 
    160 "SPRINGFIEL~6" 115.0000 " "  0  :  1 1.008174  1.008174  -38.723814    1    1 1.1000 0.9000   400101   391231   0 0   1 0   0.000000   0.000000     0 0    0.00000    0.00000    0.00000 86 "SPRINGFIELD 4"   160 -1 " " 
    161 "SPRINGFIEL~7"  13.8000 " "  0  :  2 1.040000 1.008174  -38.723814    1    1 1.1000 0.9000   400101   391231   0 0   1 0   0.000000   0.000000     0 0    0.00000    0.00000    0.00000 86 "SPRINGFIELD 4"   161 -1 " " 
    162 "CONGERVILL~1" 115.0000 " "  0  :  1 1.002463  1.002463  -36.906507    1    1 1.1000 0.9000   400101   391231   0 0   1 0   0.000000   0.000000     0 0    0.00000    0.00000    0.00000 87 "CONGERVILLE"   162 -1 " " 
    163 "CHAMPAIGN ~1" 115.0000 " "  0  :  1 1.012354  1.012354  -41.843199    1    1 1.1000 0.9000   400101   391231   0 0   1 0   0.000000   0.000000     0 0    0.00000    0.00000    0.00000 88 "CHAMPAIGN 1"   163 -1 " " 
    164 "CHAMPAIGN ~2"  13.8000 " "  0  :  2 1.040000 1.012354  -41.843199    1    1 1.1000 0.9000   400101   391231   0 0   1 0   0.000000   0.000000     0 0    0.00000    0.00000    0.00000 88 "CHAMPAIGN 1"   164 -1 " " 
    165 "CHAMPAIGN ~3"  13.8000 " "  0  :  2 1.040000 1.012354  -41.843199    1    1 1.1000 0.9000   400101   391231   0 0   1 0   0.000000   0.000000     0 0    0.00000    0.00000    0.00000 88 "CHAMPAIGN 1"   165 -1 " " 
    166 "CHAMPAIGN ~4"  13.8000 " "  0  :  2 1.040000 1.012354  -41.843199    1    1 1.1000 0.9000   400101   391231   0 0   1 0   0.000000   0.000000     0 0    0.00000    0.00000    0.00000 88 "CHAMPAIGN 1"   166 -1 " " 
    167 "CHAMPAIGN ~5"  13.8000 " "  0  :  2 1.040000 1.021823  -41.564013    1    1 1.1000 0.9000   400101   391231   0 0   1 0   0.000000   0.000000     0 0    0.00000    0.00000    0.00000 88 "CHAMPAIGN 1"   167 -1 " " 
    168 "CHAMPAIGN ~6"  13.8000 " "  0  :  2 1.040000 1.012354  -41.843199    1    1 1.1000 0.9000   400101   391231   0 0   1 0   0.000000   0.000000     0 0    0.00000    0.00000    0.00000 88 "CHAMPAIGN 1"   168 -1 " " 
    169 "CHAMPAIGN ~7"  13.8000 " "  0  :  2 1.040000 1.012354  -41.843199    1    1 1.1000 0.9000   400101   391231   0 0   1 0   0.000000   0.000000     0 0    0.00000    0.00000    0.00000 88 "CHAMPAIGN 1"   169 -1 " " 
    170 "CHAMPAIGN ~8"  13.8000 " "  0  :  2 1.040000 1.030153  -41.305336    1    1 1.1000 0.9000   400101   391231   0 0   1 0   0.000000   0.000000     0 0    0.00000    0.00000    0.00000 88 "CHAMPAIGN 1"   170 -1 " " 
    171 "FISHER 0    " 115.0000 " "  0  :  1 1.006094  1.006094  -39.656251    1    1 1.1000 0.9000   400101   391231   0 0   1 0   0.000000   0.000000     0 0    0.00000    0.00000    0.00000 89 "FISHER"   171 -1 " " 
    172 "HOMER 0     " 115.0000 " "  0  :  1 1.018887  1.018887  -40.984003    1    1 1.1000 0.9000   400101   391231   0 0   1 0   0.000000   0.000000     0 0    0.00000    0.00000    0.00000 90 "HOMER"   172 -1 " " 
    173 "TUSCOLA 1 0 " 115.0000 " "  0  :  1 1.011907  1.011907  -41.570880    1    1 1.1000 0.9000   400101   391231   0 0   1 0   0.000000   0.000000     0 0    0.00000    0.00000    0.00000 91 "TUSCOLA 1"   173 -1 " " 
    174 "WHITE HEAT~1" 115.0000 " "  0  :  1 1.020443  1.020443  -40.065498    1    1 1.1000 0.9000   400101   391231   0 0   1 0   0.000000   0.000000     0 0    0.00000    0.00000    0.00000 92 "WHITE HEATH"   174 -1 " " 
    175 "TOLONO 0    " 115.0000 " "  0  :  1 1.009929  1.009929  -41.994472    1    1 1.1000 0.9000   400101   391231   0 0   1 0   0.000000   0.000000     0 0    0.00000    0.00000    0.00000 93 "TOLONO"   175 -1 " " 
    176 "SPRINGFIEL~5" 115.0000 " "  0  :  1 1.013119  1.013119  -37.170943    1    1 1.1000 0.9000   400101   391231   0 0   1 0   0.000000   0.000000     0 0    0.00000    0.00000    0.00000 94 "SPRINGFIELD 3"   176 -1 " " 
    177 "MACKINAW 0  " 115.0000 " "  0  :  1 1.007309  1.007309  -39.250774    1    1 1.1000 0.9000   400101   391231   0 0   1 0   0.000000   0.000000     0 0    0.00000    0.00000    0.00000 95 "MACKINAW"   177 -1 " " 
    178 "URBANA 1 0  " 230.0000 " "  0  :  1 1.019565  1.019565  -37.089357    1    1 1.1000 0.9000   400101   391231   0 0   1 0   0.000000   0.000000     0 0    0.00000    0.00000    0.00000 96 "URBANA 1"   178 -1 " " 
    179 "URBANA 1 1  " 115.0000 " "  0  :  1 1.018381  1.018381  -40.152559    1    1 1.1000 0.9000   400101   391231   0 0   1 0   0.000000   0.000000     0 0    0.00000    0.00000    0.00000 96 "URBANA 1"   179 -1 " " 
    180 "SAINT JOSE~1" 115.0000 " "  0  :  1 1.018476  1.018476  -40.985530    1    1 1.1000 0.9000   400101   391231   0 0   1 0   0.000000   0.000000     0 0    0.00000    0.00000    0.00000 97 "SAINT JOSEPH"   180 -1 " " 
    181 "SPRINGFIEL~2" 115.0000 " "  0  :  1 1.011884  1.011884  -38.230887    1    1 1.1000 0.9000   400101   391231   0 0   1 0   0.000000   0.000000     0 0    0.00000    0.00000    0.00000 98 "SPRINGFIELD 2"   181 -1 " " 
    182 "SPRINGFIEL~3"  13.8000 " "  0  :  2 1.040000 1.035985  -35.430907    1    1 1.1000 0.9000   400101   391231   0 0   1 0   0.000000   0.000000     0 0    0.00000    0.00000    0.00000 98 "SPRINGFIELD 2"   182 -1 " " 
    183 "SPRINGFIEL~4"  13.8000 " "  0  :  2 1.040000 1.026468  -36.585830    1    1 1.1000 0.9000   400101   391231   0 0   1 0   0.000000   0.000000     0 0    0.00000    0.00000    0.00000 98 "SPRINGFIELD 2"   183 -1 " " 
    184 "MONTICELLO 0" 115.0000 " "  0  :  1 1.022337  1.022337  -39.874601    1    1 1.1000 0.9000   400101   391231   0 0   1 0   0.000000   0.000000     0 0    0.00000    0.00000    0.00000 99 "MONTICELLO"   184 -1 " " 
    185 "AUBURN 0    " 115.0000 " "  0  :  1 1.013011  1.013011  -37.196027    1    1 1.1000 0.9000   400101   391231   0 0   1 0   0.000000   0.000000     0 0    0.00000    0.00000    0.00000 100 "AUBURN"   185 -1 " " 
    186 "HOPEDALE 1 0" 115.0000 " "  0  :  1 1.010815  1.010815  -37.232587    1    1 1.1000 0.9000   400101   391231   0 0   1 0   0.000000   0.000000     0 0    0.00000    0.00000    0.00000 101 "HOPEDALE 1"   186 -1 " " 
    187 "CLINTON 1 0 " 230.0000 " "  0  :  1 1.035010  1.035010  -31.777405    1    1 1.1000 0.9000   400101   391231   0 0   1 0   0.000000   0.000000     0 0    0.00000    0.00000    0.00000 102 "CLINTON 1"   187 -1 " " 
    188 "CLINTON 1 1 " 115.0000 " "  0  :  1 1.026097  1.026097  -35.972140    1    1 1.1000 0.9000   400101   391231   0 0   1 0   0.000000   0.000000     0 0    0.00000    0.00000    0.00000 102 "CLINTON 1"   188 -1 " " 
    189 "CLINTON 1 2 "  13.8000 " "  0  :  0 1.040000 1.040000  -29.418352    1    1 1.1000 0.9000   400101   391231   0 0   1 0   0.000000   0.000000     0 0    0.00000    0.00000    0.00000 102 "CLINTON 1"   189 -1 " " 
    190 "MAHOMET 0   " 115.0000 " "  0  :  1 1.004590  1.004590  -40.382720    1    1 1.1000 0.9000   400101   391231   0 0   1 0   0.000000   0.000000     0 0    0.00000    0.00000    0.00000 103 "MAHOMET"   190 -1 " " 
    191 "VILLA GROV~1" 115.0000 " "  0  :  1 1.024473  1.024473  -38.931208    1    1 1.1000 0.9000   400101   391231   0 0   1 0   0.000000   0.000000     0 0    0.00000    0.00000    0.00000 104 "VILLA GROVE"   191 -1 " " 
    192 "BLOOMINGTO~1" 115.0000 " "  0  :  1 0.993646  0.993646  -39.564117    1    1 1.1000 0.9000   400101   391231   0 0   1 0   0.000000   0.000000     0 0    0.00000    0.00000    0.00000 105 "BLOOMINGTON 1"   192 -1 " " 
    193 "PEORIA 1 0  " 115.0000 " "  0  :  1 0.994903  0.994903  -36.917745    1    1 1.1000 0.9000   400101   391231   0 0   1 0   0.000000   0.000000     0 0    0.00000    0.00000    0.00000 106 "PEORIA 1"   193 -1 " " 
    194 "SPRINGFIEL~1" 115.0000 " "  0  :  1 1.020391  1.020391  -37.041793    1    1 1.1000 0.9000   400101   391231   0 0   1 0   0.000000   0.000000     0 0    0.00000    0.00000    0.00000 107 "SPRINGFIELD 1"   194 -1 " " 
    195 "GIBSON CIT~1" 115.0000 " "  0  :  1 1.011578  1.011578  -38.232512    1    1 1.1000 0.9000   400101   391231   0 0   1 0   0.000000   0.000000     0 0    0.00000    0.00000    0.00000 108 "GIBSON CITY 1"   195 -1 " " 
    196 "GIBSON CIT~2"  13.8000 " "  0  :  2 1.040000 1.011578  -38.232512    1    1 1.1000 0.9000   400101   391231   0 0   1 0   0.000000   0.000000     0 0    0.00000    0.00000    0.00000 108 "GIBSON CITY 1"   196 -1 " " 
    197 "GIBSON CIT~3"  13.8000 " "  0  :  2 1.040000 1.011578  -38.232512    1    1 1.1000 0.9000   400101   391231   0 0   1 0   0.000000   0.000000     0 0    0.00000    0.00000    0.00000 108 "GIBSON CITY 1"   197 -1 " " 
    198 "MAPLETON 0  " 115.0000 " "  0  :  1 1.004469  1.004469  -36.042435    1    1 1.1000 0.9000   400101   391231   0 0   1 0   0.000000   0.000000     0 0    0.00000    0.00000    0.00000 109 "MAPLETON"   198 -1 " " 
    199 "GIFFORD 0   " 115.0000 " "  0  :  1 1.021668  1.021668  -40.242031    1    1 1.1000 0.9000   400101   391231   0 0   1 0   0.000000   0.000000     0 0    0.00000    0.00000    0.00000 110 "GIFFORD"   199 -1 " " 
    200 "PETERSBURG 0" 115.0000 " "  0  :  1 1.003714  1.003714  -37.924332    1    1 1.1000 0.9000   400101   391231   0 0   1 0   0.000000   0.000000     0 0    0.00000    0.00000    0.00000 111 "PETERSBURG"   200 -1 " " 
branch data  [  179]                                          ck  se  ------------long_id_------------    st resist   react   charge   rate1  rate2  rate3  rate4 aloss  lngth 
      1 "CREVE COEU~1" 115.00     119 "METAMORA 0  " 115.00  "1 "   1 " "  :  1  0.018542  0.119758  0.022848  221.1    0.0    0.0    0.0 0.000    0.0 /
   1    1  0.000000  0.000000  1.000000   400101   391231   0 1  0    0.0    0.0    0.0    0.0   1 1.000   0 0.000   0 0.000   0 0.000   0 0.000   0 0.000   0 0.000   0 0.000  0 0  0  0  0  90.000 
      2 "CREVE COEU~2" 115.00       1 "CREVE COEU~1" 115.00  "1 "   1 " "  :  1  0.000673  0.003339  0.000000  100.0    0.0    0.0    0.0 0.000    0.0 /
   1    1  0.000000  0.000000  1.000000   400101   391231   0 1  0    0.0    0.0    0.0    0.0   1 1.000   0 0.000   0 0.000   0 0.000   0 0.000   0 0.000   0 0.000   0 0.000  0 0  0  0  0  90.000 
      3 "ILLIOPOLIS 0" 115.00     137 "NIANTIC 0   " 115.00  "1 "   1 " "  :  1  0.005889  0.038035  0.007256  221.1    0.0    0.0    0.0 0.000    0.0 /
   1    1  0.000000  0.000000  1.000000   400101   391231   0 1  0    0.0    0.0    0.0    0.0   1 1.000   0 0.000   0 0.000   0 0.000   0 0.000   0 0.000   0 0.000   0 0.000  0 0  0  0  0  90.000 
      4 "ILLIOPOLIS 1" 115.00       3 "ILLIOPOLIS 0" 115.00  "1 "   1 " "  :  1  0.000573  0.003303  0.000000  100.0    0.0    0.0    0.0 0.000    0.0 /
   1    1  0.000000  0.000000  1.000000   400101   391231   0 1  0    0.0    0.0    0.0    0.0   1 1.000   0 0.000   0 0.000   0 0.000   0 0.000   0 0.000   0 0.000   0 0.000  0 0  0  0  0  90.000 
      5 "PAXTON 2 0  " 115.00      64 "PAXTON 1 0  " 115.00  "1 "   1 " "  :  1  0.007877  0.054875  0.008970  221.1    0.0    0.0    0.0 0.000    0.0 /
   1    1  0.000000  0.000000  1.000000   400101   391231   0 1  0    0.0    0.0    0.0    0.0   1 1.000   0 0.000   0 0.000   0 0.000   0 0.000   0 0.000   0 0.000   0 0.000  0 0  0  0  0  90.000 
      6 "PAXTON 2 1  " 115.00       5 "PAXTON 2 0  " 115.00  "1 "   1 " "  :  1  0.000694  0.003337  0.000000  100.0    0.0    0.0    0.0 0.000    0.0 /
   1    1  0.000000  0.000000  1.000000   400101   391231   0 1  0    0.0    0.0    0.0    0.0   1 1.000   0 0.000   0 0.000   0 0.000   0 0.000   0 0.000   0 0.000   0 0.000  0 0  0  0  0  90.000 
      7 "PEORIA 9 0  " 115.00      86 "PEORIA HEI~1" 115.00  "1 "   1 " "  :  1  0.003756  0.024259  0.004628  221.1    0.0    0.0    0.0 0.000    0.0 /
   1    1  0.000000  0.000000  1.000000   400101   391231   0 1  0    0.0    0.0    0.0    0.0   1 1.000   0 0.000   0 0.000   0 0.000   0 0.000   0 0.000   0 0.000   0 0.000  0 0  0  0  0  90.000 
      7 "PEORIA 9 0  " 115.00     101 "PEORIA 7 0  " 115.00  "1 "   1 " "  :  1  0.003597  0.023232  0.004432  221.1    0.0    0.0    0.0 0.000    0.0 /
   1    1  0.000000  0.000000  1.000000   400101   391231   0 1  0    0.0    0.0    0.0    0.0   1 1.000   0 0.000   0 0.000   0 0.000   0 0.000   0 0.000   0 0.000   0 0.000  0 0  0  0  0  90.000 
      7 "PEORIA 9 0  " 115.00     148 "WASHINGTON 0" 115.00  "1 "   1 " "  :  1  0.008667  0.055980  0.010680  221.1    0.0    0.0    0.0 0.000    0.0 /
   1    1  0.000000  0.000000  1.000000   400101   391231   0 1  0    0.0    0.0    0.0    0.0   1 1.000   0 0.000   0 0.000   0 0.000   0 0.000   0 0.000   0 0.000   0 0.000  0 0  0  0  0  90.000 
      8 "PEORIA 9 1  " 115.00       7 "PEORIA 9 0  " 115.00  "1 "   1 " "  :  1  0.000634  0.003189  0.000000  100.0    0.0    0.0    0.0 0.000    0.0 /
   1    1  0.000000  0.000000  1.000000   400101   391231   0 1  0    0.0    0.0    0.0    0.0   1 1.000   0 0.000   0 0.000   0 0.000   0 0.000   0 0.000   0 0.000   0 0.000  0 0  0  0  0  90.000 
      9 "PEORIA 8 0  " 115.00     124 "BARTONVILL~2" 115.00  "1 "   1 " "  :  1  0.008069  0.055123  0.009378  221.1    0.0    0.0    0.0 0.000    0.0 /
   1    1  0.000000  0.000000  1.000000   400101   391231   0 1  0    0.0    0.0    0.0    0.0   1 1.000   0 0.000   0 0.000   0 0.000   0 0.000   0 0.000   0 0.000   0 0.000  0 0  0  0  0  90.000 
      9 "PEORIA 8 0  " 115.00     141 "PEORIA 4 0  " 115.00  "1 "   1 " "  :  1  0.004446  0.030970  0.005063  221.1    0.0    0.0    0.0 0.000    0.0 /
   1    1  0.000000  0.000000  1.000000   400101   391231   0 1  0    0.0    0.0    0.0    0.0   1 1.000   0 0.000   0 0.000   0 0.000   0 0.000   0 0.000   0 0.000   0 0.000  0 0  0  0  0  90.000 
      9 "PEORIA 8 0  " 115.00     193 "PEORIA 1 0  " 115.00  "1 "   1 " "  :  1  0.003695  0.025244  0.004295  221.1    0.0    0.0    0.0 0.000    0.0 /
   1    1  0.000000  0.000000  1.000000   400101   391231   0 1  0    0.0    0.0    0.0    0.0   1 1.000   0 0.000   0 0.000   0 0.000   0 0.000   0 0.000   0 0.000   0 0.000  0 0  0  0  0  90.000 
     10 "PEORIA 8 1  " 115.00       9 "PEORIA 8 0  " 115.00  "1 "   1 " "  :  1  0.000585  0.003967  0.000000  100.0    0.0    0.0    0.0 0.000    0.0 /
   1    1  0.000000  0.000000  1.000000   400101   391231   0 1  0    0.0    0.0    0.0    0.0   1 1.000   0 0.000   0 0.000   0 0.000   0 0.000   0 0.000   0 0.000   0 0.000  0 0  0  0  0  90.000 
     11 "LOVINGTON 0 " 115.00      15 "DECATUR 3 1 " 115.00  "1 "   1 " "  :  1  0.010408  0.067220  0.012824  221.1    0.0    0.0    0.0 0.000    0.0 /
   1    1  0.000000  0.000000  1.000000   400101   391231   0 1  0    0.0    0.0    0.0    0.0   1 1.000   0 0.000   0 0.000   0 0.000   0 0.000   0 0.000   0 0.000   0 0.000  0 0  0  0  0  90.000 
     11 "LOVINGTON 0 " 115.00      93 "TUSCOLA 2 0 " 115.00  "1 "   1 " "  :  1  0.018394  0.128141  0.020947  221.1    0.0    0.0    0.0 0.000    0.0 /
   1    1  0.000000  0.000000  1.000000   400101   391231   0 1  0    0.0    0.0    0.0    0.0   1 1.000   0 0.000   0 0.000   0 0.000   0 0.000   0 0.000   0 0.000   0 0.000  0 0  0  0  0  90.000 
     12 "LOVINGTON 1 " 115.00      11 "LOVINGTON 0 " 115.00  "1 "   1 " "  :  1  0.000534  0.003533  0.000000  100.0    0.0    0.0    0.0 0.000    0.0 /
   1    1  0.000000  0.000000  1.000000   400101   391231   0 1  0    0.0    0.0    0.0    0.0   1 1.000   0 0.000   0 0.000   0 0.000   0 0.000   0 0.000   0 0.000   0 0.000  0 0  0  0  0  90.000 
     13 "LOVINGTON 2 " 115.00      11 "LOVINGTON 0 " 115.00  "1 "   1 " "  :  1  0.000619  0.003606  0.000000  100.0    0.0    0.0    0.0 0.000    0.0 /
   1    1  0.000000  0.000000  1.000000   400101   391231   0 1  0    0.0    0.0    0.0    0.0   1 1.000   0 0.000   0 0.000   0 0.000   0 0.000   0 0.000   0 0.000   0 0.000  0 0  0  0  0  90.000 
     14 "DECATUR 3 0 " 230.00     121 "CLINTON 2 0 " 230.00  "1 "   1 " "  :  1  0.007013  0.050098  0.091337  402.4    0.0    0.0    0.0 0.000    0.0 /
   1    1  0.000000  0.000000  1.000000   400101   391231   0 1  0    0.0    0.0    0.0    0.0   1 1.000   0 0.000   0 0.000   0 0.000   0 0.000   0 0.000   0 0.000   0 0.000  0 0  0  0  0  90.000 
     14 "DECATUR 3 0 " 230.00     149 "SPRINGFIEL~8" 230.00  "1 "   1 " "  :  1  0.009133  0.065244  0.118949  402.4    0.0    0.0    0.0 0.000    0.0 /
   1    1  0.000000  0.000000  1.000000   400101   391231   0 1  0    0.0    0.0    0.0    0.0   1 1.000   0 0.000   0 0.000   0 0.000   0 0.000   0 0.000   0 0.000   0 0.000  0 0  0  0  0  90.000 
     16 "DECATUR 3 2 " 115.00      15 "DECATUR 3 1 " 115.00  "1 "   1 " "  :  1  0.000553  0.003200  0.000000  100.0    0.0    0.0    0.0 0.000    0.0 /
   1    1  0.000000  0.000000  1.000000   400101   391231   0 1  0    0.0    0.0    0.0    0.0   1 1.000   0 0.000   0 0.000   0 0.000   0 0.000   0 0.000   0 0.000   0 0.000  0 0  0  0  0  90.000 
     17 "MASON CITY 0" 115.00     120 "GREENVIEW 0 " 115.00  "1 "   1 " "  :  1  0.010316  0.070473  0.011990  221.1    0.0    0.0    0.0 0.000    0.0 /
   1    1  0.000000  0.000000  1.000000   400101   391231   0 1  0    0.0    0.0    0.0    0.0   1 1.000   0 0.000   0 0.000   0 0.000   0 0.000   0 0.000   0 0.000   0 0.000  0 0  0  0  0  90.000 
     18 "MASON CITY 1" 115.00      17 "MASON CITY 0" 115.00  "1 "   1 " "  :  1  0.000503  0.003926  0.000000  100.0    0.0    0.0    0.0 0.000    0.0 /
   1    1  0.000000  0.000000  1.000000   400101   391231   0 1  0    0.0    0.0    0.0    0.0   1 1.000   0 0.000   0 0.000   0 0.000   0 0.000   0 0.000   0 0.000   0 0.000  0 0  0  0  0  90.000 
     19 "MASON CITY 2" 115.00      17 "MASON CITY 0" 115.00  "1 "   1 " "  :  1  0.000514  0.003079  0.000000  100.0    0.0    0.0    0.0 0.000    0.0 /
   1    1  0.000000  0.000000  1.000000   400101   391231   0 1  0    0.0    0.0    0.0    0.0   1 1.000   0 0.000   0 0.000   0 0.000   0 0.000   0 0.000   0 0.000   0 0.000  0 0  0  0  0  90.000 
     20 "MASON CITY 3" 115.00      17 "MASON CITY 0" 115.00  "1 "   1 " "  :  1  0.000623  0.003339  0.000000  100.0    0.0    0.0    0.0 0.000    0.0 /
   1    1  0.000000  0.000000  1.000000   400101   391231   0 1  0    0.0    0.0    0.0    0.0   1 1.000   0 0.000   0 0.000   0 0.000   0 0.000   0 0.000   0 0.000   0 0.000  0 0  0  0  0  90.000 
     21 "MASON CITY 4" 115.00      17 "MASON CITY 0" 115.00  "1 "   1 " "  :  1  0.000620  0.003940  0.000000  100.0    0.0    0.0    0.0 0.000    0.0 /
   1    1  0.000000  0.000000  1.000000   400101   391231   0 1  0    0.0    0.0    0.0    0.0   1 1.000   0 0.000   0 0.000   0 0.000   0 0.000   0 0.000   0 0.000   0 0.000  0 0  0  0  0  90.000 
     22 "BETHANY 0   " 115.00      27 "WINDSOR 0   " 115.00  "1 "   1 " "  :  1  0.011379  0.073494  0.014021  221.1    0.0    0.0    0.0 0.000    0.0 /
   1    1  0.000000  0.000000  1.000000   400101   391231   0 1  0    0.0    0.0    0.0    0.0   1 1.000   0 0.000   0 0.000   0 0.000   0 0.000   0 0.000   0 0.000   0 0.000  0 0  0  0  0  90.000 
     23 "BETHANY 1   " 115.00      22 "BETHANY 0   " 115.00  "1 "   1 " "  :  1  0.000616  0.003222  0.000000  100.0    0.0    0.0    0.0 0.000    0.0 /
...